
**** 11/17/24 16:23:27 *** PSpice 24.1.0 (4 September 2024) *** ID# 0 ********

 ** Profile: "SCHEMATIC1-temperatura"  [ C:\Users\catav\OneDrive - Universitatea Politehnica Bucuresti\Desktop\P1\p1_voicu_catalin-ps


 ****     CIRCUIT DESCRIPTION


******************************************************************************




** Creating circuit file "temperatura.cir" 
** WARNING: THIS AUTOMATICALLY GENERATED FILE MAY BE OVERWRITTEN BY SUBSEQUENT SIMULATIONS

*Libraries: 
* Profile Libraries :
* Local Libraries :
.LIB "c:/cadence/orcadx_24.1/tools/capture/library/p1/bc846b.lib" 
.LIB "c:/cadence/orcadx_24.1/tools/capture/library/p1/bc856b.lib" 
.LIB "c:/cadence/orcadx_24.1/tools/capture/library/p1/bzx84c10.lib" 
.LIB "c:/cadence/orcadx_24.1/tools/capture/library/p1/mjd31cg.lib" 
* From [PSPICE NETLIST] section of C:\Users\catav\AppData\Roaming\SPB_16.6\cdssetup\OrCAD_PSpice\24.1.0\PSpice.ini file:
.lib "nom.lib" 

*Analysis directives: 
.DC LIN TEMP 0 150 0.1 
.OPTIONS ADVCONV
.PROBE64 V(alias(*)) I(alias(*)) W(alias(*)) D(alias(*)) NOISE(alias(*)) 
.INC "..\SCHEMATIC1.net" 



**** INCLUDING SCHEMATIC1.net ****
* source P1_VOICU_CATALIN
V_V1         N00206 0 56Vdc
R_R2         N307027 N00206  3.9k TC=0,0 
Q_Q1         N00474 N00765 N00421 QBC856B 
R_R3         N00421 N00206  100 TC=0,0 
Q_Q2         N00474 N00529 N00917 QBC846B 
D_D2         0 N00529 BZX84-C10 
R_R4         N00734 N00206  100 TC=0,0 
Q_Q3         N00765 N00765 N00734 QBC856B 
Q_Q4         N00765 N01708 N00917 QBC846B 
R_R5         N01019 N00529  10k TC=0,0 
Q_Q5         N00917 N01019 N01130 QBC846B 
R_R6         0 N01130  2.2k TC=0,0 
R_R7         N00529 N01607  47k TC=0,0 
Q_Q6         N00206 N01373 N02040 QMJD31C 
Q_Q7         N01539 N00474 N313836 QBC856B 
R_R8         0 N305436  2.7k TC=0,0 
R_R9         N01373 N307222  1k TC=0,0 
R_R10         N02040 N02050  0.47 TC=0,0 
R_R11         N02050 N02700  1 TC=0,0 
Q_Q8         N01373 N02040 N02700 QBC846B 
R_R12         N02711 N02700  3.3k TC=0,0 
R_R13         N05218 N02711  680 TC=0,0 
R_R14         N03036 N03018  220 TC=0,0 
R_R15         0 N03036  4.7k TC=0,0 
Q_Q9         N01373 N297634 0 QBC846B 
R_R16         N304135 N03838  820 TC=0,0 
R_R17         0 N02700  {Rload} TC=0,0 
X_P1         N03018 N01708 N05218 POT PARAMS: SET={a} VALUE=5k
X_P2         N01607 N297634 0 POT PARAMS: SET=0.352 VALUE=10k
X_D1         N00206 N302928 LED PARAMS: IS=5.6404e-29 RS=2  BV=5 IBV=10e-6     
+     
X_D3         N02700 N03838 LED PARAMS: IS=5.6404e-29 RS=2  BV=5 IBV=10e-6      
+    
R_R18         N302924 N302928  820  
R_R19         N302932 N302924  820  
R_R20         N302936 N302932  820  
R_R21         N303391 N302936  820  
R_R22         N303725 N303391  820  
R_R23         0 N303725  1k  
R_R24         N304293 N304135  820  
R_R25         0 N304293  820  
R_R26         N305436 N3054250  2.2k  
R_R27         N3054250 N01539  2.2k  
R_R28         N01539 N307204  1k  
R_R29         N00529 N307027  4.7k  
R_R30         N307204 N307222  820  
D_D4         N00206 N313836 D1N4148_1 
.PARAM  rload=1120 a=1

**** RESUMING temperatura.cir ****
.END

**** 11/17/24 16:23:27 *** PSpice 24.1.0 (4 September 2024) *** ID# 0 ********

 ** Profile: "SCHEMATIC1-temperatura"  [ C:\Users\catav\OneDrive - Universitatea Politehnica Bucuresti\Desktop\P1\p1_voicu_catalin-ps


 ****     Diode MODEL PARAMETERS


******************************************************************************




               BZX84-C10       D1N4148_1       X_D1.model201   X_D3.model201   
          IS  110.880000E-18    2.682000E-09   56.404000E-30   56.404000E-30 
           N     .92657         1.836           2               2            
         ISR   49.142000E-12    1.565000E-09                                 
         IKF  149.75             .04417                                      
          BV   10.124         100               5               5            
         IBV     .72438       100.000000E-06   10.000000E-06   10.000000E-06 
          RS     .85899          .5664          2               2            
          TT  973.820000E-09   11.540000E-09                                 
         CJO   57.292000E-12    4.000000E-12                                 
          VJ     .67995          .5                                          
           M     .33236          .3333                                       


**** 11/17/24 16:23:27 *** PSpice 24.1.0 (4 September 2024) *** ID# 0 ********

 ** Profile: "SCHEMATIC1-temperatura"  [ C:\Users\catav\OneDrive - Universitatea Politehnica Bucuresti\Desktop\P1\p1_voicu_catalin-ps


 ****     BJT MODEL PARAMETERS


******************************************************************************




               QBC846B         QBC856B         QMJD31C         
               NPN             PNP             NPN             
       LEVEL    1               1               1            
          IS   18.220000E-15   20.140000E-15   90.620200E-12 
          EG                                    1.05         
          BF  324.4           315.3             3.418700E+03 
          NF     .9932           .9974          1.17603      
         VAF   82              39.15           29.2393       
         IKF     .109            .079            .108267     
         ISE  289.400000E-18    6.578000E-15  537.193000E-09 
          NE    1.4             1.45            4            
          BR    8.29            8.68          367.353        
          NR     .9931           .9952          5            
         VAR   17.9             9.5             1.631        
         IKR     .09             .09            1.15207      
         ISC    9.982000E-12   16.330000E-15    1.157540E-09 
          NC    1.763           1.15            1.49179      
         ISS    0               0               0            
          RB   10              10              22.4853       
         RBM    5               5.000000E-06    1.000000E-12 
         IRB    5.000000E-06    5.000000E-06    2.209370E-03 
          RE     .649            .663         100.000000E-06 
          RC     .7014           .718            .138633     
         CJE   12.440000E-12   11.350000E-12  373.889000E-12 
         VJE     .7579           .7071           .67672      
         MJE     .3656           .3808           .575056     
         CJC    3.347000E-12    6.395000E-12  352.510000E-12 
         VJC     .5463           .4951           .884306     
         MJC     .391            .44             .473486     
        XCJC     .6193           .6288           .1          
         CJS    0               0               0            
         VJS     .75             .75             .75         
         MJS     .333            .333            .5          
          FC     .979            .9059           .8          
          TF  490.800000E-12  654.600000E-12   10.000000E-09 
         XTF    9.51            5.387           3.4926       
         VTF    2.927           6.245          12.6615       
         ITF     .3131           .2108           .052395     
          TR   90.000000E-09   55.000000E-09    3.298030E-06 
         XTB                                  999.997000E-15 
         XTI                                    1.000000E-12 
          KF    0               0               0            
          AF    1               1               1            
          CN    2.42            2.2             2.42         
           D     .87             .52             .87         



          JOB CONCLUDED

**** 11/17/24 16:23:27 *** PSpice 24.1.0 (4 September 2024) *** ID# 0 ********

 ** Profile: "SCHEMATIC1-temperatura"  [ C:\Users\catav\OneDrive - Universitatea Politehnica Bucuresti\Desktop\P1\p1_voicu_catalin-ps


 ****     JOB STATISTICS SUMMARY


******************************************************************************



  Total job time (using Solver 1)   =         .11
